NOVO24/1726529/Chaves.dss
! ==========================================================
! CHAVES — geradas de UNSEMT (Line com Switch=Y)
! ==========================================================
! 15 chave(s) omitida(s): os dois PACs fora da rede de MT deste alimentador, o que criaria ilha flutuante — ex.: 1794619622, 2547870905, 341951471
New Line.1937512970 Phases=1 Bus1=node_2254603558.3 Bus2=node_2254603559.3 Switch=Y r1=1e-4 x1=1e-4 r0=1e-4 x0=1e-4 normamps=9999
New Line.1950906022 Phases=1 Bus1=node_2268043890.3 Bus2=node_2268043891.3 Switch=Y r1=1e-4 x1=1e-4 r0=1e-4 x0=1e-4 normamps=9999
New Line.340714417 Phases=3 Bus1=node_535176201.1.2.3 Bus2=node_535176200.1.2.3 Switch=Y r1=1e-4 x1=1e-4 r0=1e-4 x0=1e-4 normamps=9999
New Line.1996813117 Phases=1 Bus1=node_2315286370.3 Bus2=node_2315286371.3 Switch=Y r1=1e-4 x1=1e-4 r0=1e-4 x0=1e-4 normamps=9999
New Line.1978404757 Phases=1 Bus1=node_2220238608.3 Bus2=node_2220238691.3 Switch=Y r1=1e-4 x1=1e-4 r0=1e-4 x0=1e-4 normamps=9999
New Line.1971336764 Phases=1 Bus1=100_1971336789.1 Bus2=100_1971336788.1 Switch=Y r1=1e-4 x1=1e-4 r0=1e-4 x0=1e-4 normamps=9999
New Line.1939256327 Phases=1 Bus1=node_2256501449.1 Bus2=node_2256501450.1 Switch=Y r1=1e-4 x1=1e-4 r0=1e-4 x0=1e-4 normamps=9999
New Line.2263127027 Phases=1 Bus1=node_2585061179.2 Bus2=node_2585061226.2 Switch=Y r1=1e-4 x1=1e-4 r0=1e-4 x0=1e-4 normamps=9999
New Line.2251936827 Phases=1 Bus1=node_2557738381.1 Bus2=node_2557738437.1 Switch=Y r1=1e-4 x1=1e-4 r0=1e-4 x0=1e-4 normamps=9999
New Line.2319434198 Phases=1 Bus1=node_2587465743.3 Bus2=node_2587465742.3 Switch=Y r1=1e-4 x1=1e-4 r0=1e-4 x0=1e-4 normamps=9999
New Line.2178758921 Phases=1 Bus1=node_2485763367.3 Bus2=node_2485763368.3 Switch=Y r1=1e-4 x1=1e-4 r0=1e-4 x0=1e-4 normamps=9999
New Line.2168629009 Phases=1 Bus1=node_2476732247.3 Bus2=node_2476732246.3 Switch=Y r1=1e-4 x1=1e-4 r0=1e-4 x0=1e-4 normamps=9999
New Line.1434432180 Phases=1 Bus1=100_1434432210.1 Bus2=100_1434432211.1 Switch=Y r1=1e-4 x1=1e-4 r0=1e-4 x0=1e-4 normamps=9999
New Line.1386854780 Phases=1 Bus1=node_1681681077.1 Bus2=node_1681681078.1 Switch=Y r1=1e-4 x1=1e-4 r0=1e-4 x0=1e-4 normamps=9999
New Line.984889143 Phases=1 Bus1=100_984889163.1 Bus2=100_984889162.1 Switch=Y r1=1e-4 x1=1e-4 r0=1e-4 x0=1e-4 normamps=9999
New Line.2206098367 Phases=1 Bus1=node_2511685250.3 Bus2=node_2511685249.3 Switch=Y r1=1e-4 x1=1e-4 r0=1e-4 x0=1e-4 normamps=9999
New Line.2480064252 Phases=1 Bus1=node_2642210209.3 Bus2=node_2642210208.3 Switch=Y r1=1e-4 x1=1e-4 r0=1e-4 x0=1e-4 normamps=9999
New Line.346998002 Phases=1 Bus1=node_1664708346.2 Bus2=node_1664708347.2 Switch=Y r1=1e-4 x1=1e-4 r0=1e-4 x0=1e-4 normamps=9999
New Line.1370087559 Phases=1 Bus1=node_1664708371.2 Bus2=node_1664708372.2 Switch=Y r1=1e-4 x1=1e-4 r0=1e-4 x0=1e-4 normamps=9999
New Line.1497730187 Phases=1 Bus1=node_1805898851.3 Bus2=node_1805898852.3 Switch=Y r1=1e-4 x1=1e-4 r0=1e-4 x0=1e-4 normamps=9999
New Line.1495557349 Phases=1 Bus1=node_1803364287.1 Bus2=node_1803364288.1 Switch=Y r1=1e-4 x1=1e-4 r0=1e-4 x0=1e-4 normamps=9999
New Line.1592876494 Phases=1 Bus1=node_1895037559.2 Bus2=node_1895037560.2 Switch=Y r1=1e-4 x1=1e-4 r0=1e-4 x0=1e-4 normamps=9999
New Line.1506751880 Phases=1 Bus1=node_1819157799.1 Bus2=node_1819157800.1 Switch=Y r1=1e-4 x1=1e-4 r0=1e-4 x0=1e-4 normamps=9999
New Line.1530922769 Phases=1 Bus1=node_1847700032.3 Bus2=node_1847700033.3 Switch=Y r1=1e-4 x1=1e-4 r0=1e-4 x0=1e-4 normamps=9999
New Line.2723014371 Phases=1 Bus1=node_2916673783.2 Bus2=node_2916673844.2 Switch=Y r1=1e-4 x1=1e-4 r0=1e-4 x0=1e-4 normamps=9999
New Line.2513475911 Phases=1 Bus1=node_2668502312.1 Bus2=node_2668502511.1 Switch=Y r1=1e-4 x1=1e-4 r0=1e-4 x0=1e-4 normamps=9999
New Line.592872636 Phases=1 Bus1=node_1916755865.3 Bus2=node_1916755866.3 Switch=Y r1=1e-4 x1=1e-4 r0=1e-4 x0=1e-4 normamps=9999
New Line.346971239 Phases=1 Bus1=node_1866872768.1 Bus2=node_1866872769.1 Switch=Y r1=1e-4 x1=1e-4 r0=1e-4 x0=1e-4 normamps=9999
New Line.1497730401 Phases=1 Bus1=node_1805898751.3 Bus2=node_1805898752.3 Switch=Y r1=1e-4 x1=1e-4 r0=1e-4 x0=1e-4 normamps=9999
New Line.1327177216 Phases=1 Bus1=node_1624103888.3 Bus2=node_1624103889.3 Switch=Y r1=1e-4 x1=1e-4 r0=1e-4 x0=1e-4 normamps=9999
New Line.1490756650 Phases=1 Bus1=node_1798263060.1 Bus2=node_1798263061.1 Switch=Y r1=1e-4 x1=1e-4 r0=1e-4 x0=1e-4 normamps=9999
New Line.1507318758 Phases=1 Bus1=node_1817333226.2 Bus2=node_1817333227.2 Switch=Y r1=1e-4 x1=1e-4 r0=1e-4 x0=1e-4 normamps=9999
New Line.1547441791 Phases=1 Bus1=node_1866872827.1 Bus2=node_1866872828.1 Switch=Y r1=1e-4 x1=1e-4 r0=1e-4 x0=1e-4 normamps=9999
New Line.1565476556 Phases=1 Bus1=node_1884988914.2 Bus2=node_1884988915.2 Switch=Y r1=1e-4 x1=1e-4 r0=1e-4 x0=1e-4 normamps=9999
New Line.1490756642 Phases=1 Bus1=node_1798263039.1 Bus2=node_1798263040.1 Switch=Y r1=1e-4 x1=1e-4 r0=1e-4 x0=1e-4 normamps=9999
New Line.1576512078 Phases=1 Bus1=node_1896178986.2 Bus2=node_1896178987.2 Switch=Y r1=1e-4 x1=1e-4 r0=1e-4 x0=1e-4 normamps=9999
New Line.1553904499 Phases=1 Bus1=node_1873365690.1 Bus2=node_1873365691.1 Switch=Y r1=1e-4 x1=1e-4 r0=1e-4 x0=1e-4 normamps=9999
New Line.1546393976 Phases=1 Bus1=node_1865863417.3 Bus2=node_1865863418.3 Switch=Y r1=1e-4 x1=1e-4 r0=1e-4 x0=1e-4 normamps=9999
New Line.1568478192 Phases=1 Bus1=node_1888029736.3 Bus2=node_1888029737.3 Switch=Y r1=1e-4 x1=1e-4 r0=1e-4 x0=1e-4 normamps=9999
New Line.1462532233 Phases=1 Bus1=node_1760007854.3 Bus2=node_1760007855.3 Switch=Y r1=1e-4 x1=1e-4 r0=1e-4 x0=1e-4 normamps=9999
New Line.1675892461 Phases=3 Bus1=segm_1675892434.1.2.3 Bus2=100_1675892490.1.2.3 Switch=Y r1=1e-4 x1=1e-4 r0=1e-4 x0=1e-4 normamps=9999
New Line.1675892449 Phases=3 Bus1=100_1675892491.1.2.3 Bus2=100_1675892490.1.2.3 Switch=Y r1=1e-4 x1=1e-4 r0=1e-4 x0=1e-4 normamps=9999
New Line.1675892473 Phases=3 Bus1=100_1675892491.1.2.3 Bus2=segm_1675892485.1.2.3 Switch=Y r1=1e-4 x1=1e-4 r0=1e-4 x0=1e-4 normamps=9999
New Line.1605750041 Phases=1 Bus1=node_1925833809.3 Bus2=node_1925833810.3 Switch=Y r1=1e-4 x1=1e-4 r0=1e-4 x0=1e-4 normamps=9999
New Line.346912108 Phases=1 Bus1=node_1925833424.3 Bus2=node_1925833425.3 Switch=Y r1=1e-4 x1=1e-4 r0=1e-4 x0=1e-4 normamps=9999
New Line.1697414057 Phases=1 Bus1=node_2376325412.3 Bus2=node_2376325411.3 Switch=Y r1=1e-4 x1=1e-4 r0=1e-4 x0=1e-4 normamps=9999
New Line.1570723852 Phases=1 Bus1=node_1890223435.1 Bus2=node_1890223436.1 Switch=Y r1=1e-4 x1=1e-4 r0=1e-4 x0=1e-4 normamps=9999
New Line.344198994 Phases=1 Bus1=node_538485322.1 Bus2=node_538485323.1 Switch=Y r1=1e-4 x1=1e-4 r0=1e-4 x0=1e-4 normamps=9999
New Line.343750155 Phases=1 Bus1=node_538030145.1 Bus2=node_538030146.1 Switch=Y r1=1e-4 x1=1e-4 r0=1e-4 x0=1e-4 normamps=9999
New Line.343440472 Phases=3 Bus1=node_537493317.1.2.3 Bus2=node_537493318.1.2.3 Switch=Y r1=1e-4 x1=1e-4 r0=1e-4 x0=1e-4 normamps=9999
New Line.342198952 Phases=3 Bus1=node_535974535.1.2.3 Bus2=node_535974536.1.2.3 Switch=Y r1=1e-4 x1=1e-4 r0=1e-4 x0=1e-4 normamps=9999
New Line.343751844 Phases=3 Bus1=node_538085879.1.2.3 Bus2=node_538085880.1.2.3 Switch=Y r1=1e-4 x1=1e-4 r0=1e-4 x0=1e-4 normamps=9999
New Line.341952240 Phases=3 Bus1=node_535789185.1.2.3 Bus2=node_535789186.1.2.3 Switch=Y r1=1e-4 x1=1e-4 r0=1e-4 x0=1e-4 normamps=9999
New Line.341952566 Phases=1 Bus1=node_535790043.2 Bus2=node_535790044.2 Switch=Y r1=1e-4 x1=1e-4 r0=1e-4 x0=1e-4 normamps=9999
New Line.343073028 Phases=3 Bus1=node_1978752639.1.2.3 Bus2=node_1978753020.1.2.3 Switch=Y r1=1e-4 x1=1e-4 r0=1e-4 x0=1e-4 normamps=9999
New Line.342198904 Phases=3 Bus1=node_535974440.1.2.3 Bus2=node_535974439.1.2.3 Switch=Y r1=1e-4 x1=1e-4 r0=1e-4 x0=1e-4 normamps=9999
New Line.343438938 Phases=1 Bus1=node_537424878.1 Bus2=node_537424879.1 Switch=Y r1=1e-4 x1=1e-4 r0=1e-4 x0=1e-4 normamps=9999
New Line.343916448 Phases=1 Bus1=node_538265920.1 Bus2=node_538265921.1 Switch=Y r1=1e-4 x1=1e-4 r0=1e-4 x0=1e-4 normamps=9999
New Line.343579664 Phases=1 Bus1=node_537772743.1 Bus2=node_537772744.1 Switch=Y r1=1e-4 x1=1e-4 r0=1e-4 x0=1e-4 normamps=9999
New Line.343916454 Phases=1 Bus1=100_2766061702.1 Bus2=100_2766061701.1 Switch=Y r1=1e-4 x1=1e-4 r0=1e-4 x0=1e-4 normamps=9999
New Line.343916108 Phases=1 Bus1=node_538213454.1 Bus2=node_538213455.1 Switch=Y r1=1e-4 x1=1e-4 r0=1e-4 x0=1e-4 normamps=9999
New Line.343916460 Phases=1 Bus1=node_538265956.1 Bus2=node_538265957.1 Switch=Y r1=1e-4 x1=1e-4 r0=1e-4 x0=1e-4 normamps=9999
New Line.343438868 Phases=1 Bus1=node_537424668.2 Bus2=node_537424669.2 Switch=Y r1=1e-4 x1=1e-4 r0=1e-4 x0=1e-4 normamps=9999
New Line.343438600 Phases=1 Bus1=node_537342380.1 Bus2=node_537342381.1 Switch=Y r1=1e-4 x1=1e-4 r0=1e-4 x0=1e-4 normamps=9999
New Line.343440770 Phases=3 Bus1=node_537493911.1.2.3 Bus2=node_537493912.1.2.3 Switch=Y r1=1e-4 x1=1e-4 r0=1e-4 x0=1e-4 normamps=9999
New Line.343749902 Phases=1 Bus1=node_537973620.2 Bus2=node_537973621.2 Switch=Y r1=1e-4 x1=1e-4 r0=1e-4 x0=1e-4 normamps=9999
New Line.343671781 Phases=3 Bus1=node_537842009.1.2.3 Bus2=node_537842010.1.2.3 Switch=Y r1=1e-4 x1=1e-4 r0=1e-4 x0=1e-4 normamps=9999
New Line.343749994 Phases=3 Bus1=node_538029682.1.2.3 Bus2=node_538029683.1.2.3 Switch=Y r1=1e-4 x1=1e-4 r0=1e-4 x0=1e-4 normamps=9999
New Line.341952537 Phases=1 Bus1=node_535789968.1 Bus2=node_535789969.1 Switch=Y r1=1e-4 x1=1e-4 r0=1e-4 x0=1e-4 normamps=9999
New Line.341952554 Phases=1 Bus1=node_535790007.1 Bus2=node_535790008.1 Switch=Y r1=1e-4 x1=1e-4 r0=1e-4 x0=1e-4 normamps=9999
New Line.343750350 Phases=1 Bus1=node_538030610.3 Bus2=node_538030611.3 Switch=Y r1=1e-4 x1=1e-4 r0=1e-4 x0=1e-4 normamps=9999
New Line.343073018 Phases=3 Bus1=node_537134266.1.2.3 Bus2=node_537134267.1.2.3 Switch=Y r1=1e-4 x1=1e-4 r0=1e-4 x0=1e-4 normamps=9999
New Line.343071190 Phases=1 Bus1=node_537022215.1 Bus2=node_537022216.1 Switch=Y r1=1e-4 x1=1e-4 r0=1e-4 x0=1e-4 normamps=9999
New Line.340714124 Phases=3 Bus1=node_535175669.1.2.3 Bus2=node_535175670.1.2.3 Switch=Y r1=1e-4 x1=1e-4 r0=1e-4 x0=1e-4 normamps=9999
New Line.341952579 Phases=1 Bus1=node_535790082.3 Bus2=node_535790083.3 Switch=Y r1=1e-4 x1=1e-4 r0=1e-4 x0=1e-4 normamps=9999
New Line.343749693 Phases=1 Bus1=node_537973041.3 Bus2=node_537973042.3 Switch=Y r1=1e-4 x1=1e-4 r0=1e-4 x0=1e-4 normamps=9999
New Line.343917164 Phases=1 Bus1=node_538267737.2 Bus2=node_538267738.2 Switch=Y r1=1e-4 x1=1e-4 r0=1e-4 x0=1e-4 normamps=9999
New Line.340713611 Phases=1 Bus1=node_535174592.1 Bus2=node_535174593.1 Switch=Y r1=1e-4 x1=1e-4 r0=1e-4 x0=1e-4 normamps=9999
New Line.342200071 Phases=3 Bus1=node_535976578.1.2.3 Bus2=node_535976579.1.2.3 Switch=Y r1=1e-4 x1=1e-4 r0=1e-4 x0=1e-4 normamps=9999
New Line.342200427 Phases=3 Bus1=node_536161835.1.2.3 Bus2=node_536161836.1.2.3 Switch=Y r1=1e-4 x1=1e-4 r0=1e-4 x0=1e-4 normamps=9999
New Line.344022995 Phases=3 Bus1=node_538329343.1.2.3 Bus2=node_538329344.1.2.3 Switch=Y r1=1e-4 x1=1e-4 r0=1e-4 x0=1e-4 normamps=9999
New Line.340715799 Phases=3 Bus1=node_535376154.1.2.3 Bus2=node_535376155.1.2.3 Switch=Y r1=1e-4 x1=1e-4 r0=1e-4 x0=1e-4 normamps=9999
New Line.342198440 Phases=1 Bus1=node_535973321.3 Bus2=node_535973322.3 Switch=Y r1=1e-4 x1=1e-4 r0=1e-4 x0=1e-4 normamps=9999
New Line.343670820 Phases=1 Bus1=node_537775301.1 Bus2=node_537775302.1 Switch=Y r1=1e-4 x1=1e-4 r0=1e-4 x0=1e-4 normamps=9999
New Line.1784496236 Phases=1 Bus1=100_1784496260.1 Bus2=100_1784496261.1 Switch=Y r1=1e-4 x1=1e-4 r0=1e-4 x0=1e-4 normamps=9999
New Line.350291089 Phases=1 Bus1=100_350291102.3 Bus2=100_350291103.3 Switch=Y r1=1e-4 x1=1e-4 r0=1e-4 x0=1e-4 normamps=9999
New Line.1794621362 Phases=3 Bus1=node_2187092571.1.2.3 Bus2=node_2187092572.1.2.3 Switch=Y r1=1e-4 x1=1e-4 r0=1e-4 x0=1e-4 normamps=9999
New Line.1794621348 Phases=3 Bus1=100_1794619638.1.2.3 Bus2=segm_1794621349.1.2.3 Switch=Y r1=1e-4 x1=1e-4 r0=1e-4 x0=1e-4 normamps=9999
New Line.1794621316 Phases=3 Bus1=node_2187092519.1.2.3 Bus2=node_2187092520.1.2.3 Switch=Y r1=1e-4 x1=1e-4 r0=1e-4 x0=1e-4 normamps=9999
New Line.1794617906 Phases=3 Bus1=node_2119078257.1.2.3 Bus2=node_2119078256.1.2.3 Switch=Y r1=1e-4 x1=1e-4 r0=1e-4 x0=1e-4 normamps=9999
New Line.1794619628 Phases=3 Bus1=100_1794619637.1.2.3 Bus2=100_1794619638.1.2.3 Switch=Y r1=1e-4 x1=1e-4 r0=1e-4 x0=1e-4 normamps=9999
New Line.1794621334 Phases=3 Bus1=100_1794619637.1.2.3 Bus2=segm_1794619625.1.2.3 Switch=Y r1=1e-4 x1=1e-4 r0=1e-4 x0=1e-4 normamps=9999
New Line.1794619514 Phases=3 Bus1=100_1794619518.1.2.3 Bus2=100_1794619517.1.2.3 Switch=Y r1=1e-4 x1=1e-4 r0=1e-4 x0=1e-4 normamps=9999
New Line.1794619409 Phases=3 Bus1=100_1794619413.1.2.3 Bus2=100_1794619412.1.2.3 Switch=Y r1=1e-4 x1=1e-4 r0=1e-4 x0=1e-4 normamps=9999
New Line.1794618248 Phases=3 Bus1=node_2119079552.1.2.3 Bus2=node_2119079551.1.2.3 Switch=Y r1=1e-4 x1=1e-4 r0=1e-4 x0=1e-4 normamps=9999
New Line.1794618486 Phases=3 Bus1=node_2119080282.1.2.3 Bus2=node_2119080283.1.2.3 Switch=Y r1=1e-4 x1=1e-4 r0=1e-4 x0=1e-4 normamps=9999
New Line.1794620000 Phases=1 Bus1=node_2187092067.2 Bus2=node_2187092068.2 Switch=Y r1=1e-4 x1=1e-4 r0=1e-4 x0=1e-4 normamps=9999
New Line.350309671 Phases=1 Bus1=100_1745588299.1 Bus2=100_1745588300.1 Switch=Y r1=1e-4 x1=1e-4 r0=1e-4 x0=1e-4 normamps=9999
New Line.1794619388 Phases=3 Bus1=100_1794619413.1.2.3 Bus2=100_1794619412.1.2.3 Switch=Y r1=1e-4 x1=1e-4 r0=1e-4 x0=1e-4 normamps=9999
New Line.1794618664 Phases=3 Bus1=node_2187089127.1.2.3 Bus2=node_2187089128.1.2.3 Switch=Y r1=1e-4 x1=1e-4 r0=1e-4 x0=1e-4 normamps=9999
New Line.1794619493 Phases=3 Bus1=100_1794619518.1.2.3 Bus2=100_1794619517.1.2.3 Switch=Y r1=1e-4 x1=1e-4 r0=1e-4 x0=1e-4 normamps=9999
New Line.342200190 Phases=3 Bus1=node_535976779.1.2.3 Bus2=node_535976780.1.2.3 Switch=Y r1=1e-4 x1=1e-4 r0=1e-4 x0=1e-4 normamps=9999
New Line.344198930 Phases=1 Bus1=node_538485142.3 Bus2=node_538485143.3 Switch=Y r1=1e-4 x1=1e-4 r0=1e-4 x0=1e-4 normamps=9999
New Line.343070918 Phases=1 Bus1=node_537021513.1 Bus2=node_537021514.1 Switch=Y r1=1e-4 x1=1e-4 r0=1e-4 x0=1e-4 normamps=9999
New Line.341952272 Phases=1 Bus1=node_535789257.1 Bus2=node_535789258.1 Switch=Y r1=1e-4 x1=1e-4 r0=1e-4 x0=1e-4 normamps=9999
New Line.343071234 Phases=1 Bus1=node_537022347.2 Bus2=node_537022348.2 Switch=Y r1=1e-4 x1=1e-4 r0=1e-4 x0=1e-4 normamps=9999
New Line.344199072 Phases=1 Bus1=node_538485532.2 Bus2=node_538485533.2 Switch=Y r1=1e-4 x1=1e-4 r0=1e-4 x0=1e-4 normamps=9999
New Line.343916312 Phases=1 Bus1=node_538214008.1 Bus2=node_538214009.1 Switch=Y r1=1e-4 x1=1e-4 r0=1e-4 x0=1e-4 normamps=9999
New Line.343918321 Phases=3 Bus1=node_538326480.1.2.3 Bus2=node_538326481.1.2.3 Switch=Y r1=1e-4 x1=1e-4 r0=1e-4 x0=1e-4 normamps=9999
New Line.342807664 Phases=3 Bus1=node_536618758.1.2.3 Bus2=node_536618759.1.2.3 Switch=Y r1=1e-4 x1=1e-4 r0=1e-4 x0=1e-4 normamps=9999
New Line.343916266 Phases=3 Bus1=node_538213894.1.2.3 Bus2=node_538213895.1.2.3 Switch=Y r1=1e-4 x1=1e-4 r0=1e-4 x0=1e-4 normamps=9999
New Line.343440780 Phases=3 Bus1=node_537493929.1.2.3 Bus2=node_537493930.1.2.3 Switch=Y r1=1e-4 x1=1e-4 r0=1e-4 x0=1e-4 normamps=9999
New Line.342807754 Phases=3 Bus1=node_536618932.1.2.3 Bus2=node_536618933.1.2.3 Switch=Y r1=1e-4 x1=1e-4 r0=1e-4 x0=1e-4 normamps=9999
New Line.343438887 Phases=1 Bus1=node_537424725.1 Bus2=node_537424726.1 Switch=Y r1=1e-4 x1=1e-4 r0=1e-4 x0=1e-4 normamps=9999
New Line.342198932 Phases=3 Bus1=node_535974499.1.2.3 Bus2=node_535974500.1.2.3 Switch=Y r1=1e-4 x1=1e-4 r0=1e-4 x0=1e-4 normamps=9999
New Line.343071163 Phases=1 Bus1=node_2055934603.1 Bus2=node_2055934604.1 Switch=Y r1=1e-4 x1=1e-4 r0=1e-4 x0=1e-4 normamps=9999
New Line.340714113 Phases=3 Bus1=node_535175648.1.2.3 Bus2=node_535175649.1.2.3 Switch=Y r1=1e-4 x1=1e-4 r0=1e-4 x0=1e-4 normamps=9999
New Line.343918301 Phases=3 Bus1=node_538326444.1.2.3 Bus2=node_538326445.1.2.3 Switch=Y r1=1e-4 x1=1e-4 r0=1e-4 x0=1e-4 normamps=9999
New Line.343438729 Phases=1 Bus1=node_537424305.1 Bus2=node_537424306.1 Switch=Y r1=1e-4 x1=1e-4 r0=1e-4 x0=1e-4 normamps=9999
New Line.343438894 Phases=1 Bus1=node_537424746.3 Bus2=node_537424747.3 Switch=Y r1=1e-4 x1=1e-4 r0=1e-4 x0=1e-4 normamps=9999
New Line.344198957 Phases=1 Bus1=node_538485211.3 Bus2=node_538485212.3 Switch=Y r1=1e-4 x1=1e-4 r0=1e-4 x0=1e-4 normamps=9999
New Line.340714057 Phases=3 Bus1=node_535175540.1.2.3 Bus2=node_535175541.1.2.3 Switch=Y r1=1e-4 x1=1e-4 r0=1e-4 x0=1e-4 normamps=9999
New Line.343071077 Phases=1 Bus1=node_537021900.2 Bus2=node_537021901.2 Switch=Y r1=1e-4 x1=1e-4 r0=1e-4 x0=1e-4 normamps=9999
New Line.343438950 Phases=1 Bus1=node_2772399777.1 Bus2=node_2772399778.1 Switch=Y r1=1e-4 x1=1e-4 r0=1e-4 x0=1e-4 normamps=9999
New Line.343750024 Phases=1 Bus1=node_538029764.3 Bus2=node_538029765.3 Switch=Y r1=1e-4 x1=1e-4 r0=1e-4 x0=1e-4 normamps=9999
New Line.343751676 Phases=3 Bus1=node_538085579.1.2.3 Bus2=node_538085580.1.2.3 Switch=Y r1=1e-4 x1=1e-4 r0=1e-4 x0=1e-4 normamps=9999
New Line.341952586 Phases=1 Bus1=node_535790103.3 Bus2=node_535790104.3 Switch=Y r1=1e-4 x1=1e-4 r0=1e-4 x0=1e-4 normamps=9999
New Line.343071285 Phases=1 Bus1=node_537022488.1 Bus2=node_537022489.1 Switch=Y r1=1e-4 x1=1e-4 r0=1e-4 x0=1e-4 normamps=9999
New Line.344198859 Phases=1 Bus1=node_538484965.3 Bus2=node_538484966.3 Switch=Y r1=1e-4 x1=1e-4 r0=1e-4 x0=1e-4 normamps=9999
New Line.343750004 Phases=1 Bus1=node_538029700.2 Bus2=node_538029701.2 Switch=Y r1=1e-4 x1=1e-4 r0=1e-4 x0=1e-4 normamps=9999
New Line.343918332 Phases=3 Bus1=node_538326503.1.2.3 Bus2=node_538326504.1.2.3 Switch=Y r1=1e-4 x1=1e-4 r0=1e-4 x0=1e-4 normamps=9999
New Line.342807716 Phases=3 Bus1=node_536618855.1.2.3 Bus2=node_536618854.1.2.3 Switch=Y r1=1e-4 x1=1e-4 r0=1e-4 x0=1e-4 normamps=9999
New Line.340714046 Phases=3 Bus1=node_535175519.1.2.3 Bus2=node_535175520.1.2.3 Switch=Y r1=1e-4 x1=1e-4 r0=1e-4 x0=1e-4 normamps=9999
New Line.343438991 Phases=1 Bus1=node_537425007.3 Bus2=node_537425008.3 Switch=Y r1=1e-4 x1=1e-4 r0=1e-4 x0=1e-4 normamps=9999
New Line.343816290 Phases=3 Bus1=node_538085951.1.2.3 Bus2=node_538085952.1.2.3 Switch=Y r1=1e-4 x1=1e-4 r0=1e-4 x0=1e-4 normamps=9999
New Line.343439044 Phases=1 Bus1=node_537425166.1 Bus2=node_537425167.1 Switch=Y r1=1e-4 x1=1e-4 r0=1e-4 x0=1e-4 normamps=9999
New Line.341952560 Phases=1 Bus1=node_535790025.3 Bus2=node_535790026.3 Switch=Y r1=1e-4 x1=1e-4 r0=1e-4 x0=1e-4 normamps=9999
New Line.343071101 Phases=3 Bus1=node_537021960.1.2.3 Bus2=node_537021961.1.2.3 Switch=Y r1=1e-4 x1=1e-4 r0=1e-4 x0=1e-4 normamps=9999
New Line.341952544 Phases=3 Bus1=node_535789989.1.2.3 Bus2=node_535789990.1.2.3 Switch=Y r1=1e-4 x1=1e-4 r0=1e-4 x0=1e-4 normamps=9999
New Line.342807654 Phases=3 Bus1=node_536618740.1.2.3 Bus2=node_536618741.1.2.3 Switch=Y r1=1e-4 x1=1e-4 r0=1e-4 x0=1e-4 normamps=9999
New Line.341952573 Phases=1 Bus1=node_535790064.1 Bus2=node_535790065.1 Switch=Y r1=1e-4 x1=1e-4 r0=1e-4 x0=1e-4 normamps=9999
New Line.342445122 Phases=1 Bus1=node_536472441.1 Bus2=node_536472442.1 Switch=Y r1=1e-4 x1=1e-4 r0=1e-4 x0=1e-4 normamps=9999
New Line.343073255 Phases=3 Bus1=node_537134703.1.2.3 Bus2=node_537134704.1.2.3 Switch=Y r1=1e-4 x1=1e-4 r0=1e-4 x0=1e-4 normamps=9999
New Line.343816483 Phases=3 Bus1=node_538086302.1.2.3 Bus2=node_538086303.1.2.3 Switch=Y r1=1e-4 x1=1e-4 r0=1e-4 x0=1e-4 normamps=9999
New Line.346977538 Phases=1 Bus1=node_541871641.2 Bus2=node_541871642.2 Switch=Y r1=1e-4 x1=1e-4 r0=1e-4 x0=1e-4 normamps=9999
New Line.346650211 Phases=1 Bus1=node_541225247.1 Bus2=node_541225248.1 Switch=Y r1=1e-4 x1=1e-4 r0=1e-4 x0=1e-4 normamps=9999
New Line.346740452 Phases=1 Bus1=node_432065965.2 Bus2=node_1270730186.2 Switch=Y r1=1e-4 x1=1e-4 r0=1e-4 x0=1e-4 normamps=9999
New Line.346387577 Phases=1 Bus1=node_538488035.3 Bus2=node_538488036.3 Switch=Y r1=1e-4 x1=1e-4 r0=1e-4 x0=1e-4 normamps=9999
New Line.346387393 Phases=1 Bus1=node_538487483.2 Bus2=node_538487484.2 Switch=Y r1=1e-4 x1=1e-4 r0=1e-4 x0=1e-4 normamps=9999
New Line.401158514 Phases=1 Bus1=node_664827264.1 Bus2=node_664827536.1 Switch=Y r1=1e-4 x1=1e-4 r0=1e-4 x0=1e-4 normamps=9999
New Line.346740398 Phases=1 Bus1=node_541437670.3 Bus2=node_541437671.3 Switch=Y r1=1e-4 x1=1e-4 r0=1e-4 x0=1e-4 normamps=9999
New Line.609421790 Phases=1 Bus1=node_1178179506.1 Bus2=node_1178179507.1 Switch=Y r1=1e-4 x1=1e-4 r0=1e-4 x0=1e-4 normamps=9999
New Line.346387196 Phases=1 Bus1=node_538486890.3 Bus2=node_538486891.3 Switch=Y r1=1e-4 x1=1e-4 r0=1e-4 x0=1e-4 normamps=9999
New Line.591180816 Phases=1 Bus1=node_859521626.2 Bus2=node_859521627.2 Switch=Y r1=1e-4 x1=1e-4 r0=1e-4 x0=1e-4 normamps=9999
New Line.563819628 Phases=1 Bus1=node_833964158.3 Bus2=node_833964159.3 Switch=Y r1=1e-4 x1=1e-4 r0=1e-4 x0=1e-4 normamps=9999
New Line.563819636 Phases=1 Bus1=node_833964177.3 Bus2=node_833964178.3 Switch=Y r1=1e-4 x1=1e-4 r0=1e-4 x0=1e-4 normamps=9999
New Line.492959869 Phases=1 Bus1=node_763202898.2 Bus2=node_763202944.2 Switch=Y r1=1e-4 x1=1e-4 r0=1e-4 x0=1e-4 normamps=9999
New Line.602800382 Phases=1 Bus1=node_870904962.3 Bus2=node_870904963.3 Switch=Y r1=1e-4 x1=1e-4 r0=1e-4 x0=1e-4 normamps=9999
New Line.471129154 Phases=1 Bus1=node_740913927.3 Bus2=node_740913928.3 Switch=Y r1=1e-4 x1=1e-4 r0=1e-4 x0=1e-4 normamps=9999
New Line.548812005 Phases=1 Bus1=node_818831829.3 Bus2=node_818831830.3 Switch=Y r1=1e-4 x1=1e-4 r0=1e-4 x0=1e-4 normamps=9999
New Line.457813442 Phases=1 Bus1=node_727433747.1 Bus2=node_727433748.1 Switch=Y r1=1e-4 x1=1e-4 r0=1e-4 x0=1e-4 normamps=9999
New Line.592451832 Phases=1 Bus1=node_860792611.3 Bus2=node_860792612.3 Switch=Y r1=1e-4 x1=1e-4 r0=1e-4 x0=1e-4 normamps=9999
New Line.592451820 Phases=1 Bus1=node_860792586.3 Bus2=node_860792587.3 Switch=Y r1=1e-4 x1=1e-4 r0=1e-4 x0=1e-4 normamps=9999
New Line.350291571 Phases=3 Bus1=100_350291549.1.2.3 Bus2=100_350291570.1.2.3 Switch=Y r1=1e-4 x1=1e-4 r0=1e-4 x0=1e-4 normamps=9999
New Line.497146461 Phases=1 Bus1=node_767397986.3 Bus2=node_767397987.3 Switch=Y r1=1e-4 x1=1e-4 r0=1e-4 x0=1e-4 normamps=9999
New Line.341952655 Phases=1 Bus1=node_535790286.2 Bus2=node_535790287.2 Switch=Y r1=1e-4 x1=1e-4 r0=1e-4 x0=1e-4 normamps=9999
New Line.350291580 Phases=3 Bus1=100_350291549.1.2.3 Bus2=100_350291570.1.2.3 Switch=Y r1=1e-4 x1=1e-4 r0=1e-4 x0=1e-4 normamps=9999
New Line.623004343 Phases=3 Bus1=node_891199749.1.2.3 Bus2=node_891199750.1.2.3 Switch=Y r1=1e-4 x1=1e-4 r0=1e-4 x0=1e-4 normamps=9999
New Line.633455257 Phases=1 Bus1=node_901272175.1 Bus2=node_901272176.1 Switch=Y r1=1e-4 x1=1e-4 r0=1e-4 x0=1e-4 normamps=9999
New Line.344198662 Phases=1 Bus1=100_1078983504.1 Bus2=100_1078983505.1 Switch=Y r1=1e-4 x1=1e-4 r0=1e-4 x0=1e-4 normamps=9999
New Line.664453629 Phases=1 Bus1=node_935606943.3 Bus2=node_935606944.3 Switch=Y r1=1e-4 x1=1e-4 r0=1e-4 x0=1e-4 normamps=9999
New Line.689509097 Phases=1 Bus1=node_962195353.3 Bus2=node_962195354.3 Switch=Y r1=1e-4 x1=1e-4 r0=1e-4 x0=1e-4 normamps=9999
New Line.623372888 Phases=1 Bus1=node_891636307.1 Bus2=node_891636308.1 Switch=Y r1=1e-4 x1=1e-4 r0=1e-4 x0=1e-4 normamps=9999
New Line.633455284 Phases=1 Bus1=node_901272231.1 Bus2=node_901272232.1 Switch=Y r1=1e-4 x1=1e-4 r0=1e-4 x0=1e-4 normamps=9999
New Line.681002661 Phases=1 Bus1=node_953796249.2 Bus2=node_953796250.2 Switch=Y r1=1e-4 x1=1e-4 r0=1e-4 x0=1e-4 normamps=9999
New Line.626915541 Phases=1 Bus1=node_894814154.2 Bus2=node_894814155.2 Switch=Y r1=1e-4 x1=1e-4 r0=1e-4 x0=1e-4 normamps=9999
New Line.648527223 Phases=1 Bus1=node_917263068.2 Bus2=node_917263069.2 Switch=Y r1=1e-4 x1=1e-4 r0=1e-4 x0=1e-4 normamps=9999
New Line.350291325 Phases=1 Bus1=100_350291339.1 Bus2=100_350291338.1 Switch=Y r1=1e-4 x1=1e-4 r0=1e-4 x0=1e-4 normamps=9999
New Line.2606462689 Phases=3 Bus1=100_2547870936.1.2.3 Bus2=segm_2547870930.1.2.3 Switch=Y r1=1e-4 x1=1e-4 r0=1e-4 x0=1e-4 normamps=9999
New Line.2547871998 Phases=1 Bus1=node_2646729306.3 Bus2=node_2646729967.3 Switch=Y r1=1e-4 x1=1e-4 r0=1e-4 x0=1e-4 normamps=9999
New Line.2606462677 Phases=3 Bus1=segm_2606462678.1.2.3 Bus2=100_2547870935.1.2.3 Switch=Y r1=1e-4 x1=1e-4 r0=1e-4 x0=1e-4 normamps=9999
New Line.2547870898 Phases=3 Bus1=100_2547870936.1.2.3 Bus2=100_2547870935.1.2.3 Switch=Y r1=1e-4 x1=1e-4 r0=1e-4 x0=1e-4 normamps=9999
New Line.2268979785 Phases=1 Bus1=node_2486948206.3 Bus2=node_2486948418.3 Switch=Y r1=1e-4 x1=1e-4 r0=1e-4 x0=1e-4 normamps=9999
New Line.2547872411 Phases=3 Bus1=node_428946418.1.2.3 Bus2=node_2646730672.1.2.3 Switch=Y r1=1e-4 x1=1e-4 r0=1e-4 x0=1e-4 normamps=9999
New Line.2547871721 Phases=3 Bus1=node_2646729266.1.2.3 Bus2=node_2646729377.1.2.3 Switch=Y r1=1e-4 x1=1e-4 r0=1e-4 x0=1e-4 normamps=9999
New Line.1788931943 Phases=1 Bus1=100_1788931968.3 Bus2=100_1788931967.3 Switch=Y r1=1e-4 x1=1e-4 r0=1e-4 x0=1e-4 normamps=9999
New Line.1788721537 Phases=1 Bus1=100_2545573389.1 Bus2=100_2545573388.1 Switch=Y r1=1e-4 x1=1e-4 r0=1e-4 x0=1e-4 normamps=9999
New Line.2604298201 Phases=1 Bus1=node_440275647.1 Bus2=node_2757512547.1 Switch=Y r1=1e-4 x1=1e-4 r0=1e-4 x0=1e-4 normamps=9999
New Line.2384711623 Phases=1 Bus1=node_2515821645.3 Bus2=node_2515821704.3 Switch=Y r1=1e-4 x1=1e-4 r0=1e-4 x0=1e-4 normamps=9999
New Line.2246174300 Phases=1 Bus1=node_2650961285.1 Bus2=node_2650961286.1 Switch=Y r1=1e-4 x1=1e-4 r0=1e-4 x0=1e-4 normamps=9999
New Line.1789301227 Phases=1 Bus1=100_1789301252.1 Bus2=100_1789301251.1 Switch=Y r1=1e-4 x1=1e-4 r0=1e-4 x0=1e-4 normamps=9999
New Line.342444037 Phases=1 Bus1=node_536323628.3 Bus2=node_536323629.3 Switch=Y r1=1e-4 x1=1e-4 r0=1e-4 x0=1e-4 normamps=9999
New Line.2547872066 Phases=1 Bus1=node_2646730067.3 Bus2=node_2646730068.3 Switch=Y r1=1e-4 x1=1e-4 r0=1e-4 x0=1e-4 normamps=9999
New Line.1788476779 Phases=1 Bus1=100_2527233715.3 Bus2=100_2527233716.3 Switch=Y r1=1e-4 x1=1e-4 r0=1e-4 x0=1e-4 normamps=9999
New Line.2547874683 Phases=1 Bus1=node_2722086864.3 Bus2=node_2722086865.3 Switch=Y r1=1e-4 x1=1e-4 r0=1e-4 x0=1e-4 normamps=9999
New Line.1788768771 Phases=1 Bus1=100_2623646906.3 Bus2=100_2623646905.3 Switch=Y r1=1e-4 x1=1e-4 r0=1e-4 x0=1e-4 normamps=9999
New Line.350291624 Phases=3 Bus1=100_350291593.1.2.3 Bus2=100_350291614.1.2.3 Switch=Y r1=1e-4 x1=1e-4 r0=1e-4 x0=1e-4 normamps=9999
New Line.2585804782 Phases=3 Bus1=100_2585804794.1.2.3 Bus2=100_2585804795.1.2.3 Switch=Y r1=1e-4 x1=1e-4 r0=1e-4 x0=1e-4 normamps=9999
New Line.2353051927 Phases=1 Bus1=node_2525838496.3 Bus2=node_2828703878.3 Switch=Y r1=1e-4 x1=1e-4 r0=1e-4 x0=1e-4 normamps=9999
New Line.343440063 Phases=3 Bus1=node_537427818.1.2.3 Bus2=node_537427817.1.2.3 Switch=Y r1=1e-4 x1=1e-4 r0=1e-4 x0=1e-4 normamps=9999
...
